########################################################################
# Copyright (C) 2012 VMware, Inc.
# All Rights Reserved
########################################################################

package VDNetLib::Host::HostOperations;
#
# This package allows to perform various operations on an ESX/ESXi host
# and retrieve status related to these operations. An object of this
# class refers to one ESX/ESXi host.
#
use base qw(VDNetLib::Host::HypervisorOperations);

use strict;
use warnings;
use FindBin;
use lib "$FindBin::Bin/../";
use lib "$FindBin::Bin/../VDNetLib/";
use lib "$FindBin::Bin/../VDNetLib/VIX/";

use VDNetLib::DHCPServer::DHCPServer;
use VDNetLib::Common::Utilities;
use VDNetLib::Workloads::Utilities;
use VDNetLib::Common::STAFHelper;
use VDNetLib::Common::EsxUtils;
use VDNetLib::InlineJava::VDNetInterface qw(LoadInlineJava CreateInlineObject
                                         InlineExceptionHandler NewDataHandler
                                         LoadInlineJavaClass);
use VDNetLib::InlinePython::VDNetInterface qw(CreateInlinePythonObject
                                              ConfigureLogger
                                              CallMethodWithKWArgs);
use VDNetLib::Common::VDErrorno qw(VDSetLastError VDGetLastError FAILURE SUCCESS
                                   VDCleanErrorStack);
use VDNetLib::Common::GlobalConfig qw($vdLogger $sshSession);
use VDNetLib::Common::ParseFile;
use VDNetLib::Common::FindBuildInfo;
use VDNetLib::Common::Compare;
use VDNetLib::InlineJava::Host;
use VDNetLib::InlineJava::SessionManager;
use VDNetLib::Switch::OpenVswitch::OpenVswitch;
use VDNetLib::TestData::TestConstants;
use VDNetLib::Switch::Port::Cisco;
use Data::Dumper;
use XML::Simple;
use VDNetLib::TestData::TestConstants;
use VDNetLib::Common::PacketCapture;

use constant NETDVSPATH => "/usr/lib/vmware/bin/";
use constant MODPATH => "/usr/lib/vmware/vmkmod/";
use constant DVFILTERCTL => "dvfilter_ctl";
use constant DVFILTERFWSLOW => "dvfilter-fw-slow";
use constant DVFILTERCHARDEVLOC => "/vmfs/devices/char/vmkdriver/";
use constant DVFILTER_FW_CHRNO => 200;
use constant SYSLOGPATH => '/var/run/log/';
use constant VMKRNLLOGFILE => '/var/log/vmkernel.log';
use constant LACPLOGFILE => '/var/log/lacp.log';
use constant DVFWORLDIDVSINODE => "/net/dvFilter/filter/worldid/";
use constant CMD_NEW_STOP_VISOR_FIREWALL => 'esxcli network firewall set -e false';
use constant CMD_NEW_START_VISOR_FIREWALL => 'esxcli network firewall set -e true';
use constant CMD_GET_FIREWALL => 'esxcli network firewall get';
use constant SSHSERVICENAME => "TSM-SSH";
use constant SSH_START => "start";
use constant ESXSTAFFIREWALLVIB => "/var/log/vmware/stafFirewall.vib";
use constant STAFFIREWALLVIBSRC => "$FindBin::Bin/../bin/vibs/stafFirewall.vib";
use constant ESXTESTCERTSVIB => "/var/log/vmware/test-certs.vib";
use constant TESTCERTVIBSRC => "$FindBin::Bin/../bin/vibs/test-certs.vib";
use constant FUSION_DEFAULT_NETWORKING_PATH => '/Library/Preferences/VMware\ ".
             "Fusion/';
use constant WAIT_FOR_DRIVER_TO_READY => 20;
use constant WAIT_FOR_HOSTD_TO_READY => 15;
use constant HOSTD_CONFIG_FILE => "/etc/vmware/hostd/config.xml";
use constant SRIOV_CONFIG_NODE_PATH => "/config/plugins/hostsvc/sriov";
use constant TRUE    => VDNetLib::Common::GlobalConfig::TRUE;
use constant FALSE   => VDNetLib::Common::GlobalConfig::FALSE;
use constant WAIT_FOR_HOST_TO_BOOT => 900;
use constant VMFS_BASE_PATH => "/vmfs/volumes/";
use constant VDNET_LOCAL_MOUNTPOINT => "vdtest";
use constant VSAN_LOCAL_PATH => "/vmfs/volumes/vsanDatastore";
use constant VDNET_SHARED_MOUNTPOINT => "vdnetSharedStorage";
use constant IGNORE_CORE_DUMP_LIST => ['sfcb-vmware_bas-zdump'];
use constant SCRATCH_CORE => "/scratch/core/";
our @vsishConfigNodes = ('/reliability/vmkstress/',);
use constant checkupRecoveryMethods => [
   {
      'checkupmethod' => 'CheckHostUsingPing',
      'recoverymethod' => 'RecoverHostFromPSOD',
   },
   {
      'checkupmethod' => 'CheckHostUsingHostd',
      'recoverymethod' => 'RecoverFromHostdCrash',
   },
   {
      'checkupmethod' => 'DetectCoreDump',
      'recoverymethod' => 'CopyCoreDumpFile',
   },
];

my $vmklogEOF  = undef;
my $vmkloglastEOF = undef;
our $vmknicEsxcli = "/sbin/esxcli network ip";
our $vmknicEsxcliJSON = "/sbin/esxcli --debug --formatter=json network ip";
our $vswitchEsxcli = "/sbin/esxcli network vswitch standard";
our $vdswitchEsxcli = "/sbin/esxcli network vswitch dvs vmware";
our $vmnicEsxcli = "/sbin/esxcli network nic";

use constant HOST_SETUP_SCRIPT => "vdnet_esx_setup.py";

use constant attributemapping => {
   'ptep_cluster_entries' => {
      'payload' => 'ptepclusterentries',
      'attribute' => undef
   },
   'ptep_cluster_entry' => {
      'payload' => 'ptepclusterentry',
      'attribute' => 'GetMORId'
   },
   'build' => {
         'payload'   => 'build',
         'attribute' => undef,
   }
};


########################################################################
#
# new --
#      Constructor/entry point to create an object of this package
#      (VDNetLib::Host::HostOperations).
#
# Input:
#      hostIP : IP address of the host. hostname is also accepted.
#               (Required)
#      stafObj: an object of VDNetLib::Common::STAFHelper.
#               If not provided, a new object with default options
#               will be created. (optional)
#      vdnetSource: vdnet source code to mount (<server>:/<share>)
#      vmRepository: vdnet vm repository to mount (<server>:/<share>)
#      sharedStorage: shared storage to mount (<server>:/<share>)
#
# Results:
#      An object of VDNetLib::Host::HostOperations package.
#
# Side effects:
#      None
#
########################################################################

sub new {
   my $class         = shift;
   my $hostIP        = shift;
   my $stafObj       = shift;
   my $vdnetSource   = shift;
   my $vmRepository  = shift;
   my $sharedStorage = shift;
   my $password = shift;

   my $self = {
      # IP address of ESX machine
      hostIP => $hostIP,

      # Obtain Staf handle of the process from VDNetLib::Common::STAFHelper module
      stafHelper => $stafObj,
      userid     => "root",
      vcObj	 => undef,
      password   => $password,
      os         => undef,
      arch       => undef,
      hostType   => undef,
      portgroups => undef,
      switches   => undef,
      vmtree     => undef,
      build      => undef,
      buildType  => undef,
      branch     => undef,
      vmklogEOF  => undef,
      sriovHash  => undef,
      runtimeDir => undef,
      fptNicList => undef,
      vdnetSource => $vdnetSource,
      vmRepository => $vmRepository,
      sharedStorage => $sharedStorage,
      ovfDiskMode => "thin",
      vmkloglastEOF => undef,
      _pyIdName => 'id_',
      _pyclass      => "vmware.vsphere.esx.esx_facade.ESXFacade", # python path
      DVFilterHostSetup => 0, # means, DVFilterHostSetup is not done
                             # this way it needs to setup everytime
                             # new on HostOps is done, need to
                             # make it global var such that all the
                             # instances can see if it is setup.

   };

   bless($self);

   if (not defined $self->{hostIP}) {
      $vdLogger->Error("Host IP/name not provided");
      VDSetLastError("EINVALID");
      return FAILURE;
   }

   #
   # Create a VDNetLib::Common::STAFHelper object with default if it not
   # provided in the input parameters.
   #
   if (not defined $self->{stafHelper}) {
      my $options;
      $options->{logObj} = $vdLogger;
      my $temp = VDNetLib::Common::STAFHelper->new($options);
      if (not defined $temp) {
         $vdLogger->Error("Failed to create VDNetLib::Common::STAFHelper object");
         VDSetLastError("ETAF");
         return FAILURE;
      }
      $self->{stafHelper} = $temp;
   }
   #
   #Creating child object for hosted if host is not esx/vmkernel.
   #
   my $childObjType = undef;
   my $hostType = $self->{stafHelper}->GetOS($self->{hostIP});
   if ((defined $hostType) && ($hostType !~ /vmkernel|esx/i)){
      $childObjType = "VDNetLib::Host::HostedHostOperations";
   }
   if (defined $childObjType){
      eval "require $childObjType";
      if ($@) {
         $vdLogger->Error("unable to load module $childObjType:$@");
         VDSetLastError("EOPFAILED");
         return "FAIL";
      }
      $self = $childObjType->new($self->{hostIP}, $self->{stafHelper});
      if ($self eq FAILURE) {
         $vdLogger->Error("Failed to create $childObjType");
         VDSetLastError(VDGetLastError());
         return FAILURE;
      }
      bless $self, $childObjType;
      return $self;
   }
   #
   # Host's password is needed to create a STAF anchor for Host service.
   # So, trying the default passwords one by one until successful.
   #
   my @passwords;
   if (defined $self->{'password'}) {
       push (@passwords, $self->{'password'});
   } else {
      @passwords = ('ca\$hc0w', 'vmw@re', '');
   }
   foreach my $pwd (@passwords) {
      my $command = "CONNECT AGENT $self->{hostIP} SSL USERID \"root\" " .
                    "PASSWORD \"$pwd\"";
      my $result = $self->{stafHelper}->STAFSubmitHostCommand("local",
                                                            $command);
      if ($result->{rc} == 0) {
         $self->{stafHostAnchor} = $result->{result};
         $self->{'password'} = $pwd;
         $pwd =~ s/\\//g; # ssh doesn't like escape \
         $self->{sshPassword} = $pwd;
         last;
      }
   }
   if (not defined $self->{stafHostAnchor}) {
      $vdLogger->Error("Failed to create staf anchor to $self->{hostIP}");
      $vdLogger->Error("Either $self->{hostIP} is unreachable ".
	               "or password is incorrect");
      VDSetLastError("ESTAF");
      return FAILURE;
   }

   if (FAILURE eq $self->ConfigureHostForVDNet($vdnetSource,
                                               $vmRepository,
                                               $sharedStorage)) {
      VDSetLastError(VDGetLastError());
      return FAILURE;
   }

   $self->{hostType} = $self->{os};

   #
   # Some of the esx utility functions are available in EsxUtils package,
   # creating an object of the same.
   #
   my $esxUtilObj = VDNetLib::Common::EsxUtils->new($vdLogger,
                                                    $self->{stafHelper});
   if (not defined $esxUtilObj) {
      $vdLogger->Error("Failed to create EsxUtils object");
      VDSetLastError("EOPFAILED");
      return FAILURE;
   }
   $self->{esxutil} = $esxUtilObj;

   # Determine the build Information
   ($self->{build},$self->{branch},$self->{buildType},$self->{version}) =
   VDNetLib::Common::Utilities::GetBuildInfo($self->{hostIP}, $self->{stafHelper});

   if (not defined $self->{build} || not defined $self->{branch}
      || not defined $self->{buildType} ) {
      $vdLogger->Error("Unknown build information, not supported");
      VDSetLastError("EOSNOTSUP");
      return FAILURE;
   }

   #
   # The STAF anchor for host staf service will not work for VM staf service,
   # hence creating another anchor.
   #
   $vdLogger->Trace("Doing the connect agent call now");
   my $command = "CONNECT AGENT $self->{hostIP} SSL USERID \"root\" " .
                 "PASSWORD \"$self->{password}\"";
   my $result = $self->{stafHelper}->STAFSubmitVMCommand("local",
                                                         $command);
   if ($result->{rc} != 0) {
      $vdLogger->Error("Failed to create staf anchor");
      VDSetLastError("ESTAF");
      return FAILURE;
   }
   $self->{stafVMAnchor}        = $result->{result};
   $vdLogger->Trace("Created a stafVMAnchor successfully");

   #bless self to HostOperation2015 class based on version
   my $childClass = undef;
   if ((defined $self->{version}) && ($self->{version} =~ /^6/)){
      $childClass = "VDNetLib::Host::HostOperations2015";
   }
   if (defined $childClass){
      eval "require $childClass";
      if ($@) {
         $vdLogger->Error("unable to load module $childObjType:$@");
         VDSetLastError("EOPFAILED");
         return "FAIL";
      }
      $vdLogger->Trace("Created a version 6 host");
      bless $self, $childClass;
   }
   return $self;
}


########################################################################
#
# CreateVSS --
#      This method creates a vSwitch with a given name.
#      The created vSwitch will not have any uplink
#      by default.
#
# Input:
#      arrayOfSpecs: array of spec for vss
#      vswitch: name of the vSwitch to be created (required) in each spec
#
# Results:
#      Returns array of of vss objects if created successfully
#      Returns "FAILURE", in case of any error.
#
# Side effects:
#      None.
#
########################################################################

sub CreateVSS
{
   my $self         = shift;
   my $arrayOfSpecs = shift;
   my @arrayOfVSSObjects;
   my $iteration = 0;

   foreach my $element (@$arrayOfSpecs) {
      if (ref($element) !~ /HASH/) {
         $vdLogger->Error("VSS spec not in hash form");
         VDSetLastError("EOPFAILED");
         return FAILURE;
      }
      $iteration++;
      my %options = %$element;
      my $vswitch = $options{name};# mandatory

      if (not defined $vswitch) {
         $vswitch = "vss";
         $vswitch = VDNetLib::Common::Utilities::GenerateNameWithRandomId(
                                                                    $vswitch,
                                                                    $iteration);
      }

      if ($vswitch ne "vSwitch0") {
         my $command = "esxcli network vswitch standard add -v $vswitch";
         my $result = $self->{stafHelper}->STAFSyncProcess($self->{hostIP},
                                                        $command);
         if (($result->{rc} != 0) || ($result->{exitCode} != 0)) {
            $vdLogger->Error("Unable to create vswitch $vswitch: " .
                             Dumper($result));
            VDSetLastError("ESTAF");
            return FAILURE;
         }
      }

      my $vssObj = VDNetLib::Switch::Switch->new(
                                   'switch'     => $vswitch,
                                   'switchType' => "vswitch",
                                   'host'	=> $self->{hostIP},
                                   'hostOpsObj' => $self,
                                   'stafHelper' => $self->{stafHelper});
      if ($vssObj eq FAILURE) {
         $vdLogger->Error("Failed to create VSS $vswitch for $self->(hostIP)");
         VDSetLastError(VDGetLastError());
         return FAILURE;
      }
      $vdLogger->Trace("Created VSS $vswitch on " . $self->{hostIP} );
      push @arrayOfVSSObjects, $vssObj;
   }

   return \@arrayOfVSSObjects;
}


########################################################################
#
# CreatePort --
#      This method creates a pswitch port.
#
# Input:
#      arrayOfSpecs: array of spec for vss
#
# Results:
#      Returns arra of of vss objects if created successfully
#      Returns "FAILURE", in case of any error.
#
# Side effects:
#      None.
#
########################################################################

sub CreatePort
{
   my $self = shift;
   my $arrayOfSpecs = shift;
   my @arrayOfPortObjects;

   foreach my $element (@$arrayOfSpecs) {
      if (ref($element) !~ /HASH/) {
         $vdLogger->Error("Standard PG spec not in hash form");
         VDSetLastError("EOPFAILED");
         return FAILURE;
      }
      my %options    = %$element;
      my $vmnicObj   = $options{vmnic};    # mandatory
      my $portid     = $options{portid};
      my $pswitchObj = $options{pswitch};  # optional

      if (not defined $vmnicObj) {
         $vdLogger->Error("vmnic object not provided");
         VDSetLastError("EINVALID");
         return FAILURE;
      }

      # This discovers the pswitch port on the pswitch corresponding to this vmnic
      my $result = $vmnicObj->GetPhysicalSwitchInfo();
      if ($result eq FAILURE) {
         $vdLogger->Error("Failed to get physical switch information");
         VDSetLastError(VDGetLastError());
         return FAILURE;
      }

      if (not defined $pswitchObj) {
         # If code flow comes inside this if blocks it means
         # user has not given pswitch as a param to this API
         # which means user wants vdnet to figure out the corresponding
         # pswitch for this vmnic
         #
         # Get the physical switch information from
         # vmnic/uplink
         #
         $pswitchObj = VDNetLib::Switch::Switch->new(
                                  switchType    => "pswitch",
                                  switchAddress => $vmnicObj->{switchAddress});
      }

      if ((not defined $pswitchObj) || ($pswitchObj eq FAILURE)) {
         $vdLogger->Error("Failed to create physical switch object for " .
                          $vmnicObj->{switchAddress});
         VDSetLastError(VDGetLastError());
         return FAILURE;
      }
      my $pgObj =
         VDNetLib::Switch::Port::Cisco->new('vmnicObj'   => $vmnicObj,
                                            'portid'     => $portid,
                                            'switchObj'  => $pswitchObj->{switchObj},
                                            'stafHelper' => $self->{stafHelper});
      if ($pgObj eq FAILURE) {
         $vdLogger->Error("Failed to create Port object for $portid");
         VDSetLastError("EOPFAILED");
         return FAILURE;
      }
      foreach my $key (keys %$vmnicObj) {
         if (not defined $pgObj->{$key}) {
            $pgObj->{$key} = $vmnicObj->{$key};
         }
      }
      push @arrayOfPortObjects, $pgObj;
   }
   return \@arrayOfPortObjects;
}



########################################################################
#
# DeleteVSS --
#      This method deletes the given vswitch
#
# Input:
#      arrayOfVSSObjects: array of spec for vss
#
# Results:
#      Returns "SUCCESS" if the given vswitch is deleted successfully
#      Returns "FAILURE" in case of any errror.
#
# Side effects:
#      None
#
########################################################################

sub DeleteVSS
{
   my $self = shift;
   my $arrayOfVSSObjects = shift;

   foreach my $vssObject (@$arrayOfVSSObjects) {
      my $vswitch;
      if (defined $vssObject->{'switch'}) {
         $vswitch = $vssObject->{'switch'};
      } elsif (defined $vssObject->{'name'}) {
         $vswitch = $vssObject->{'name'};
      }
      # command to delete a vswitch on ESX/ESXi
      my $command = "esxcli network vswitch standard remove -v $vswitch";
      my $result = $self->{stafHelper}->STAFSyncProcess($self->{hostIP},
                                                        $command);
      if (($result->{rc} != 0) || ($result->{exitCode} != 0)) {
         $vdLogger->Error("STAF command to delete vswitch failed:" .
                          Dumper($result));
         VDSetLastError("ESTAF");
         return FAILURE;
      }
      # Update the vswitch list on the given host and verify that the given
      # vswitch is not present in the list.
      my $resultHash = ();
      $resultHash = $self->UpdatePGHash();
      if (exists $resultHash->{switches}{$vswitch}) {
         $vdLogger->Error("Delete $vswitch failed:" . Dumper($result));
         VDSetLastError("EOPFAILED");
         return FAILURE;
      }
      $vdLogger->Info("Delete VSS $vswitch passed");
   }
   return SUCCESS;
}


########################################################################
#
# DeletevSwitch --
#      This method deletes the given vswitch
#
# Input:
#      vswitch: name of the vswitch to be deleted (required)
#
# Results:
#      Returns "SUCCESS" if the given vswitch is deleted successfully or
#      if the vswitch by the given name does not exist;
#      Returns "FAILURE" in case of any errror.
#
# Side effects:
#      None
#
########################################################################

sub DeletevSwitch
{
   my $self          = shift;
   my $vswitch       = shift;# mandatory

   if (not defined $vswitch) {
      $vdLogger->Error("vswitch name not provided");
      VDSetLastError("EINVALID");
      return FAILURE;
   }

   # Find the updated information about vswitches on the given host
   my $resultHash = $self->UpdatePGHash();

   #
   # If the given vswitch does not exist, then there is nothing to delete.
   # So returning SUCCESS here.
   #
   if (not exists $resultHash->{switches}{$vswitch}) {
      $vdLogger->Debug("vSwitch $vswitch does not exist");
      return SUCCESS; # why instead of failure? because it causes tests to fail
                      # when both sut and helpers are same and same switches
                      # are created.
                      #
   }

   # command to delete a vswitch on ESX/ESXi
   my $command = "esxcli network vswitch standard remove -v $vswitch";
   my $result = $self->{stafHelper}->STAFSyncProcess($self->{hostIP},
                                                     $command);
   if (($result->{rc} != 0) || ($result->{exitCode} != 0)) {
      $vdLogger->Error("STAF command to delete vswitch failed:" .
                       Dumper($result));
      VDSetLastError("ESTAF");
      return FAILURE;
   }

   #
   # Update the vswitch list on the given host and verify that the given
   # vswitch is not present in the list.
   #
   $resultHash = ();
   $resultHash = $self->UpdatePGHash();
   if (exists $resultHash->{switches}{$vswitch}) {
      $vdLogger->Error("Delete $vswitch failed:" . Dumper($result));
      VDSetLastError("EOPFAILED");
      return FAILURE;
   } else {
      $vdLogger->Debug("Successfully deleted the vswitch $vswitch");
      return SUCCESS;
   }
   return SUCCESS;
}


########################################################################
#
# CreateStandardPortGroup
#      To create a port group on a given vSwitch
#
# Input:
#      arrayOfSpecs: array of spec for portgroups
#      vswitch: name of the vswitch on which the portgroup has to be
#               created. (required)
#
# Results:
#      Returns array of pg objects
#      Returns "FAILURE" in case of any error;
#
# Side effects:
#      None
#
########################################################################

sub CreateStandardPortGroup
{
   my $self = shift;
   my $arrayOfSpecs = shift;
   my @arrayOfPGObjects;
   my $iteration = 0;

   foreach my $element (@$arrayOfSpecs) {
      if (ref($element) !~ /HASH/) {
         $vdLogger->Error("Standard Portgroup spec not in hash form");
         VDSetLastError("EOPFAILED");
         return FAILURE;
      }
      $iteration++;
      my %options       = %$element;
      my $vswitchObj    = $options{vss};
      my $portgroup     = $options{name};
      my $vswitch;
      if (not defined $portgroup) {
         $portgroup = "pg";
         $portgroup =
            VDNetLib::Common::Utilities::GenerateNameWithRandomId($portgroup, $iteration);
      }

      if (not defined $vswitchObj) {
         $vdLogger->Error("Portgroup and/or vswitch name not provided");
         VDSetLastError("EINVALID");
         return FAILURE;
      }
      if (defined $vswitchObj->{'switch'}) {
         $vswitch = $vswitchObj->{'switch'};
      } elsif (defined $vswitchObj->{'name'}) {
         $vswitch = $vswitchObj->{'name'};
      }

      # For Rollback testing, vmk0 is in portgroup VMKernel and this portgroup
      # can't be removed at cleanup. If we create it in testbed init, it will
      # be failed.
      #
      my $command = "esxcli network vswitch standard portgroup list";
      my $result = $self->{stafHelper}->STAFSyncProcess($self->{hostIP},
                                                        $command);
      if (($result->{rc} != 0) || ($result->{exitCode} != 0)) {
         $vdLogger->Error("STAF command to list portgroup failed:" .
                          Dumper($result));
         VDSetLastError("ESTAF");
         return FAILURE;
      }

      if (($portgroup =~ /vmkernel/i)
          && ($result->{stdout} =~ /$portgroup\s+$vswitch/i)) {
         $vdLogger->Debug("Found destination portgroup $portgroup in " .
                          "vswitch $vswitch.");
      } else {
         # command to add a portgroup to the vswitch
         $command = "esxcli network vswitch standard portgroup add ".
                       " -v $vswitch -p $portgroup";
         my $result = $self->{stafHelper}->STAFSyncProcess($self->{hostIP},
                                                           $command);
         if (($result->{rc} != 0) || ($result->{exitCode} != 0)) {
            $vdLogger->Error("STAF command to create portgroup failed:" .
                             Dumper($result));
            VDSetLastError("ESTAF");
            return FAILURE;
         }
         $vdLogger->Debug("Successfully to created portgroup $portgroup" .
                          "on swithc $vswitch under host $self->{hostIP}");
      }

      my $pgObj =
         VDNetLib::Switch::VSSwitch::PortGroup->new('hostip'     => $self->{hostIP},
                                                    'pgName'     => $portgroup,
                                                    'switchObj'  => $vswitchObj,
                                                    'hostOpsObj' => $self,
                                                    'stafHelper' => $self->{stafHelper});
      if ($pgObj eq FAILURE) {
         $vdLogger->Error("Failed to create PortGroup object for $portgroup");
         VDSetLastError("EOPFAILED");
         return FAILURE;
      }
      push @arrayOfPGObjects, $pgObj;
   }
   return \@arrayOfPGObjects;
}


########################################################################
#
# DeleteStandardPortGroup --
#      To Delete a port group on a given vSwitch
#
# Input:
#      arrayOfPGObjects: array of pgobjects to be deleted
#
# Results:
#     Returns "SUCCESS" if the given portgroup is deleted successfully
#     Returns "FAILURE" in case of any error;
#
# Side effects:
#     None
#
########################################################################

sub DeleteStandardPortGroup
{
   my $self = shift;
   my $arrayOfPGObjects = shift;

   foreach my $pgObject (@$arrayOfPGObjects) {
      my $portgroup  = $pgObject->{'pgName'};
      my $vswitchObj = $pgObject->{'switchObj'};
      my $vswitch;
      if (defined $vswitchObj->{'switch'}) {
         $vswitch = $vswitchObj->{'switch'};
      } elsif (defined $vswitchObj->{'name'}) {
         $vswitch = $vswitchObj->{'name'};
      }
      if (not defined $portgroup || not defined $vswitch) {
         $vdLogger->Error("Portgroup and/or vswitch name not provided");
         VDSetLastError("EINVALID");
         return FAILURE;
      }

      # command to delete a portgroup from vswitch
      my $command = "esxcli network vswitch standard portgroup remove" .
                           " -p $portgroup -v $vswitch";
      my $result = $self->{stafHelper}->STAFSyncProcess($self->{hostIP},
                                                        $command);
      if (($result->{rc} != 0) || ($result->{exitCode} != 0)) {
         $vdLogger->Error("STAF command to delete portgroup failed:" .
                          Dumper($result));
         VDSetLastError("ESTAF");
         return FAILURE;
      }

      #
      # Get the updated portgroup list on the given host and ensure that the
      # given portgroup does not exist.
      #

      my $resultHash = $self->UpdatePGHash();
      if (exists $resultHash->{portgroups}{$portgroup}) {
         $vdLogger->Error("Delete portgroup failed");
         VDSetLastError("EOPFAILED");
         return FAILURE;
      }
   }
   return SUCCESS;
}
########################################################################
#
# configure_stress --
#      the method for the key configure_stress
#
# Input:
#      operation: "Enable" or "Disable" (required)
#      stress_options: 'ref: stress_options':
#
#      **Note: NA
#
# Results:
#      Returns "SUCCESS" if the given operation is successful;
#      Returns "FAILURE" in case of any error.
#
# Side effects:NA
#
########################################################################
sub configure_stress {
   my $self = shift;             # Required
   my $param = shift;

   if ((not defined $param) ||
       (not exists  $param->{stress_options}) ||
       (not exists  $param->{operation})){
       $vdLogger->Error("Insufficient parameters passed");
       VDSetLastError("EINVALID");
       return FAILURE;
   }

   my $operation = $param->{operation};
   if (($operation !~ /enable/i) &&
       ($operation !~ /disable/i)){
       $vdLogger->Error("In the key of configure_stress ," .
          "the operation  need to be 'enable' or 'disable'");
       VDSetLastError("EINVALID");
       return FAILURE;
   }
   $vdLogger->Info("Need $operation stress $param->{stress_options}");

   # Int he key "configure_stress", we supposed that "stressoptions "
   # and "iperation" should be set all the time. So we delete the
   # conditions of "default stressoptions "
   my %temp; # temporary hash variable to store stress options hash

   # If the 'stressoption' key (which has a hash variable in a string) is
   # specified in the param, then eval that string to store the
   # actual hash content (not variable) in a temporary variable. Then,
   # assign the the reference to the temporary variable for
   # 'stressoptions' key in param.

   if($param->{'stress_options'} =~ /^\%/i) {
      %temp = eval($param->{'stress_options'});
      $param->{'stress_options'} = \%temp;
   } else {
      # User can also supply a single hash value as stressOptions
      # E.g. stressoptions => "{NetCopyToLowSG => 150}",
      $param->{'stress_options'} =~ s/[\{>\}\s+]//g;
      my @stress_options = split(/=/,$param->{'stress_options'});
      if ((not defined $stress_options[1]) || (not defined $stress_options[0])) {